data_CNTcY
_audit_creation_method           'pos2cif.pl'
_cell_length_a               12.3170003891
_cell_length_b               12.3170003891315
_cell_length_c               20
_cell_angle_alpha            90
_cell_angle_beta             90
_cell_angle_gamma            120.010002136348
_symmetry_space_group_H-M        'P1'
_symmetry_Int_Tables_number      '1'
_symmetry_cell_setting           'triclinic'
loop_
_symmetry_equiv_pos_as_xyz
x,y,z

loop_
_atom_site_label
_atom_site_type_symbol
_atom_site_occupancy
_atom_site_fract_x
_atom_site_fract_y
_atom_site_fract_z
_atom_site_U_iso_or_equiv
C1  C  1.0000  -0.00015  0.20053  0.13335  0.0000
C2  C  1.0000  0.06627  0.13337  0.13149  0.0000
C3  C  1.0000  0.19777  0.19667  0.13835  0.0000
C4  C  1.0000  0.26343  0.12820  0.13790  0.0000
C5  C  1.0000  0.39506  0.19442  0.14329  0.0000
C6  C  1.0000  0.46469  0.13048  0.14112  0.0000
C7  C  1.0000  0.59776  0.20132  0.14288  0.0000
C8  C  1.0000  0.66659  0.13639  0.13706  0.0000
C9  C  1.0000  0.79951  0.20370  0.13675  0.0000
C10  C  1.0000  0.86750  0.13746  0.13090  0.0000
C11  C  1.0000  0.99708  0.39948  0.14466  0.0000
C12  C  1.0000  0.06410  0.33177  0.14150  0.0000
C13  C  1.0000  0.19549  0.39434  0.14992  0.0000
C14  C  1.0000  0.26213  0.32632  0.14978  0.0000
C15  C  1.0000  0.45761  0.32484  0.15496  0.0000
C16  C  1.0000  0.65801  0.33399  0.15028  0.0000
C17  C  1.0000  0.79428  0.40431  0.14816  0.0000
C18  C  1.0000  0.86334  0.33686  0.14323  0.0000
C19  C  1.0000  0.00128  0.60047  0.14463  0.0000
C20  C  1.0000  0.06774  0.53239  0.14784  0.0000
C21  C  1.0000  0.20238  0.59384  0.15270  0.0000
C22  C  1.0000  0.86618  0.53884  0.14652  0.0000
C23  C  1.0000  0.00335  0.80094  0.13474  0.0000
C24  C  1.0000  0.07045  0.73310  0.14094  0.0000
C25  C  1.0000  0.20445  0.79584  0.14196  0.0000
C26  C  1.0000  0.27357  0.72835  0.14770  0.0000
C27  C  1.0000  0.40920  0.79819  0.14427  0.0000
C28  C  1.0000  0.61012  0.80883  0.13389  0.0000
C29  C  1.0000  0.80390  0.80567  0.12857  0.0000
C30  C  1.0000  0.87028  0.73567  0.13531  0.0000
C31  C  1.0000  0.00281  0.00123  0.12822  0.0000
C32  C  1.0000  0.06811  0.93275  0.13115  0.0000
C33  C  1.0000  0.20047  0.99641  0.13463  0.0000
C34  C  1.0000  0.26811  0.92941  0.13806  0.0000
C35  C  1.0000  0.40067  0.99687  0.13859  0.0000
C36  C  1.0000  0.46930  0.93099  0.13808  0.0000
C37  C  1.0000  0.60256  0.00345  0.13414  0.0000
C38  C  1.0000  0.67175  0.94031  0.12911  0.0000
C39  C  1.0000  0.80408  0.00537  0.12657  0.0000
C40  C  1.0000  0.87103  0.93787  0.12638  0.0000
N1  N  1.0000  0.58514  0.39044  0.15982  0.0000
N2  N  1.0000  0.80567  0.60764  0.14568  0.0000
N3  N  1.0000  0.67448  0.74604  0.12928  0.0000
N4  N  1.0000  0.39060  0.38898  0.16468  0.0000
N5  N  1.0000  0.26020  0.52228  0.16089  0.0000
N6  N  1.0000  0.48363  0.74050  0.14941  0.0000
Tc1  Tc  1.0000  0.43585  0.56887  0.18763  0.0000
Y1  Y  1.0000  0.62923  0.58517  0.19493  0.0000
